Version 4
SHEET 1 2028 680
WIRE 176 16 16 16
WIRE 368 16 176 16
WIRE 176 32 176 16
WIRE 368 32 368 16
WIRE 80 48 64 48
WIRE 128 48 80 48
WIRE 272 48 256 48
WIRE 320 48 272 48
WIRE 16 128 16 16
WIRE 176 160 176 112
WIRE 256 160 176 160
WIRE 528 160 256 160
WIRE 832 224 784 224
WIRE 944 224 912 224
WIRE 992 224 944 224
WIRE 1296 224 1248 224
WIRE 1408 224 1376 224
WIRE 1456 224 1408 224
WIRE 368 240 368 112
WIRE 368 256 368 240
WIRE 528 256 528 240
WIRE 528 256 368 256
WIRE 176 272 176 160
WIRE 368 272 368 256
WIRE 80 288 64 288
WIRE 128 288 80 288
WIRE 288 288 272 288
WIRE 320 288 288 288
WIRE 16 384 16 208
WIRE 176 384 176 352
WIRE 176 384 16 384
WIRE 256 384 176 384
WIRE 368 384 368 352
WIRE 368 384 256 384
WIRE 256 400 256 384
WIRE 1360 400 1328 400
WIRE 1488 400 1440 400
WIRE 1504 400 1488 400
WIRE 720 416 688 416
WIRE 848 416 800 416
WIRE 864 416 848 416
FLAG 320 336 0
FLAG 80 48 S14
FLAG 288 288 S14
FLAG 272 48 S23
FLAG 80 288 S23
FLAG 1328 400 0
FLAG 688 416 0
FLAG 1488 400 control
FLAG 848 416 carrier
FLAG 784 224 0
FLAG 944 224 S14
FLAG 256 160 A
FLAG 368 240 B
FLAG 320 96 0
FLAG 128 96 0
FLAG 128 336 0
FLAG 1248 224 0
FLAG 1408 224 S23
FLAG 256 400 0
FLAG 736 48 A
FLAG 768 80 B
FLAG 800 48 C
SYMBOL voltage 16 112 R0
WINDOW 123 0 0 Left 0
WINDOW 39 0 0 Left 0
SYMATTR InstName V1
SYMATTR Value {Vdc}
SYMBOL sw 176 128 M180
SYMATTR InstName S1
SYMBOL sw 176 368 M180
SYMATTR InstName S2
SYMBOL sw 368 128 M180
SYMATTR InstName S3
SYMBOL sw 368 368 M180
WINDOW 3 38 57 Left 2
SYMATTR InstName S4
SYMBOL res 512 144 R0
SYMATTR InstName R1
SYMATTR Value 50
SYMBOL voltage 1456 400 R90
WINDOW 123 0 0 Left 0
WINDOW 39 0 0 Left 0
WINDOW 0 -49 37 VRight 2
WINDOW 3 63 -32 VRight 2
SYMATTR InstName V2
SYMATTR Value SINE(0 {M} 50)
SYMBOL voltage 816 416 R90
WINDOW 123 0 0 Left 0
WINDOW 39 0 0 Left 0
WINDOW 0 -63 39 VRight 2
WINDOW 3 51 -414 VRight 2
SYMATTR InstName V3
SYMATTR Value PULSE(-1 1 {0.75/fs} {0.5/fs} {0.5/fs} 0 {1/fs})
SYMBOL bv 928 224 R90
WINDOW 3 32 56 VTop 2
WINDOW 0 -32 56 VBottom 2
SYMATTR Value v=if(v(control)>=v(carrier),10,0)
SYMATTR InstName B1
SYMBOL bv 1392 224 R90
WINDOW 3 32 56 VTop 2
WINDOW 0 -32 56 VBottom 2
SYMATTR Value v=if(v(control)<v(carrier),10,0)
SYMATTR InstName B2
SYMBOL ZZZ\\LTspiceControlLibrary\\Math\\Operands\\sub 752 80 R0
SYMATTR InstName U1
TEXT 0 448 Left 2 !.param fs=50k Vdc=2 M=0.5\n.model sw sw(ron=1m roff=1meg vt=5)\n.tran 0 40ms 20ms\n.four 50Hz V(C)\n.op plotwinsize=0 numdgt=15
TEXT 472 -144 Left 6 ;Bipolar PWM full bridge
TEXT 696 8 Left 2 ;For .FOUR only
