Version 4
SHEET 1 2072 724
WIRE 176 16 -112 16
WIRE 368 16 176 16
WIRE 176 32 176 16
WIRE 368 32 368 16
WIRE 80 48 64 48
WIRE 128 48 80 48
WIRE 272 48 256 48
WIRE 320 48 272 48
WIRE 1472 48 1424 48
WIRE 1488 48 1472 48
WIRE 1024 64 976 64
WIRE 1040 64 1024 64
WIRE -112 128 -112 16
WIRE 128 128 128 96
WIRE 320 128 320 96
WIRE 176 160 176 112
WIRE 544 160 176 160
WIRE 176 272 176 160
WIRE 368 272 368 112
WIRE 432 272 368 272
WIRE 544 272 544 240
WIRE 544 272 432 272
WIRE 80 288 64 288
WIRE 128 288 80 288
WIRE 288 288 272 288
WIRE 320 288 288 288
WIRE -112 384 -112 208
WIRE 176 384 176 352
WIRE 176 384 -112 384
WIRE 368 384 368 352
WIRE 368 384 176 384
WIRE 1040 384 1008 384
WIRE 1088 384 1040 384
WIRE 1440 384 1424 384
WIRE 1472 384 1440 384
WIRE 1504 384 1472 384
WIRE 1040 544 992 544
WIRE 1088 544 1040 544
WIRE 1504 544 1456 544
WIRE 1536 544 1504 544
WIRE -112 560 -112 384
FLAG 320 128 0
FLAG 128 128 0
FLAG 128 336 0
FLAG 320 336 0
FLAG 80 48 S1_ctrl
FLAG 288 288 S4_ctrl
FLAG 272 48 S3_ctrl
FLAG 80 288 S2_ctrl
FLAG 896 64 0
FLAG 1344 48 0
FLAG 1024 64 control
FLAG 1472 48 carrier
FLAG 928 384 0
FLAG 1360 384 0
FLAG 1040 384 S1_ctrl
FLAG 1472 384 S3_ctrl
FLAG 912 544 0
FLAG 1376 544 0
FLAG 1040 544 S2_ctrl
FLAG 1504 544 S4_ctrl
FLAG -112 560 0
FLAG 176 160 A
FLAG 656 0 A
FLAG 688 32 B
FLAG 720 0 C
FLAG 432 272 B
SYMBOL sw 176 128 M180
WINDOW 3 24 -12 Left 2
SYMATTR InstName S1
SYMBOL sw 176 368 M180
WINDOW 3 24 -12 Left 2
SYMATTR InstName S2
SYMBOL sw 368 128 M180
WINDOW 3 24 -12 Left 2
SYMATTR InstName S3
SYMBOL sw 368 368 M180
WINDOW 3 24 -12 Left 2
SYMATTR InstName S4
SYMBOL res 528 144 R0
SYMATTR InstName R1
SYMATTR Value 50
SYMBOL voltage 992 64 R90
WINDOW 123 0 0 Left 0
WINDOW 39 0 0 Left 0
WINDOW 0 -56 42 VRight 2
WINDOW 3 65 -41 VRight 2
SYMATTR InstName V2
SYMATTR Value SINE(0 {M} 50)
SYMBOL voltage 1440 48 R90
WINDOW 123 0 0 Left 0
WINDOW 39 0 0 Left 0
WINDOW 0 -55 41 VRight 2
WINDOW 3 83 -267 VRight 2
SYMATTR InstName V3
SYMATTR Value PULSE(-1 1 {0.75/fs} {0.5/fs} {0.5/fs} 0 {1/fs})
SYMBOL bv 1024 384 R90
WINDOW 3 32 56 VTop 2
WINDOW 0 -32 56 VBottom 2
SYMATTR Value v=if(v(control)>=v(carrier),10,0)
SYMATTR InstName B1
SYMBOL bv 1456 384 R90
WINDOW 3 32 56 VTop 2
WINDOW 0 -32 56 VBottom 2
SYMATTR Value v=if(-v(control)>=v(carrier),10,0)
SYMATTR InstName B3
SYMBOL bv 1008 544 R90
WINDOW 3 32 56 VTop 2
WINDOW 0 -32 56 VBottom 2
SYMATTR Value v=if(v(control)<v(carrier),10,0)
SYMATTR InstName B2
SYMBOL bv 1472 544 R90
WINDOW 3 32 56 VTop 2
WINDOW 0 -32 56 VBottom 2
SYMATTR Value v=if(-v(control)<v(carrier),10,0)
SYMATTR InstName B4
SYMBOL voltage -112 112 R0
SYMATTR InstName V4
SYMATTR Value {Vdc}
SYMBOL ZZZ\\LTspiceControlLibrary\\Math\\Operands\\sub 672 32 R0
SYMATTR InstName U1
TEXT 0 504 Left 2 !.param fs=50k Vdc=2 M=0.5\n.model sw sw(ron=1m roff=1meg vt=5)\n.tran 0 40ms 20ms\n.four 50Hz V(C)\n.op plotwinsize=0 numdgt=15
TEXT 624 -136 Left 2 ;Unipolar PWM full bridge
TEXT 376 424 Left 2 ;Voltage Controlled Switch
